<?xml version="1.0" encoding="UTF-8" ?>

<routes xmlns="http://example.com/schema/be_simple_i18n_routing"
    xmlns:xsi="http://www.w3.org/2001/XMLSchema-instance">

    <route id="homepage_locale">
        <locale key="en">/en/</locale>
        <locale key="fr">/fr/</locale>
        <locale key="de">/de/</locale>
        <default key="_controller">TestBundle:Frontend:homepageLocale</default>
    </route>
</routes>